CRYSTAL
PRIMVEC
   5.5568370   0.0000000   0.0000000
   0.0000000   5.5568370   0.0000000
   0.0000000   0.0000000   7.9129359
CONVVEC
   5.5568370   0.0000000   0.0000000
   0.0000000   5.5568370   0.0000000
   0.0000000   0.0000000   7.9129359
PRIMCOORD
     2  1
Ni      0.0000000   0.0000000   0.0000000
Ni      2.7784185   2.7784185   3.9564679
