CRYSTAL
PRIMVEC
   5.1624999   0.0000000   5.1624999
   0.0000000   5.1624999   5.1624999
   5.1624999   5.1624999   0.0000000
CONVVEC
   5.1624999   0.0000000   5.1624999
   0.0000000   5.1624999   5.1624999
   5.1624999   5.1624999   0.0000000
PRIMCOORD
     4  1
Fe      0.0000000   0.0000000   0.0000000
Fe      2.5812500   2.5812500   0.0000000
Fe      0.0000000   2.5812500   2.5812500
Fe      2.5812500   0.0000000   2.5812500
