CRYSTAL
PRIMVEC
   4.9691977   0.0000000   0.0000000
  -2.4845988   4.3034514   0.0000000
   0.0000000   0.0000000  13.1626938
CONVVEC
   4.9691977   0.0000000   0.0000000
  -2.4845988   4.3034514   0.0000000
   0.0000000   0.0000000  13.1626938
PRIMCOORD
     4  1
Mn      2.4846013   1.4344824   0.0000000
Mn      2.4846013   1.4344824   4.9329472
Mn     -0.0000025   2.8689690   0.0000000
Mn     -0.0000025   2.8689690   4.9329472
